_benchmark/grid_models/TestGrid/bak_2024-10-29/Master.dss
Clear 
New Circuit.ReteTest basekV=150.000000 pu=1 MVAsc1=10000000 MVAsc3=10000000 bus1=N_001 phases=3 

Set DefaultBaseFrequency=50 
Set normvmaxpu=1.05 
Set normvminpu=0.95 
Set emergvmaxpu=1.1 
Set emergvminpu=0.9 


Redirect Transformers.dss 
Redirect Lines.dss 
Redirect Loads.dss
Redirect PV.dss
Redirect Storage.dss



Set voltagebases=[150.000000  20.000000]
Calcvoltagebases 

BusCoords XY.dss 

!Plot type=circuit quantity=voltage max=0 dots=y labels=y subs=y c1=navy c2=green c3=red 

!Redirect ATL_Rete_Rurale_cluster_AM_BAU_2030_Monitor.dss 

!Set mode=yearly stepsize=1.000000h number=8760.000000 

!New energymeter.EM_015 element=line.L_002-015
!New energymeter.EM_008 element=line.L_022-008


Solve 

